2ONH_F3P_A_600
  RCSB PDB01151506383D
Coordinates from PDB:2ONH:A:600 Model:1 without hydrogens
 20 19  0  0  0  0            999 V2000
   21.3320   57.1000  -52.8820   C 0  0  0  0  0  0  0  0  0  0  0  0
   22.7260   57.1910  -52.6960   C 0  0  0  0  0  0  0  0  0  0  0  0
   23.4210   55.7870  -52.4410   C 0  0  0  0  0  0  0  0  0  0  0  0
   22.5340   54.6510  -53.0540   C 0  0  0  0  0  0  0  0  0  0  0  0
   22.5360   54.6220  -54.5840   C 0  0  0  0  0  0  0  0  0  0  0  0
   21.5140   55.5780  -55.1490   C 0  0  0  0  0  0  0  0  0  0  0  0
   21.7500   56.8540  -55.6440   C 0  0  0  0  0  0  0  0  0  0  0  0
   20.5710   57.6700  -56.1820   C 0  0  0  0  0  0  0  0  0  0  0  0
   23.0710   57.4080  -55.6730   C 0  0  0  0  0  0  0  0  0  0  0  0
   24.7150   55.8150  -53.0310   C 0  0  0  0  0  0  0  0  0  0  0  0
   23.4480   58.3450  -52.7260   F 0  0  0  0  0  0  0  0  0  0  0  0
   23.4100   55.6210  -51.0150   O 0  0  0  0  0  0  0  0  0  0  0  0
   24.1960   54.4760  -50.1900   P 0  0  0  0  0  0  0  0  0  0  0  0
   25.7650   54.6190  -50.5760   O 0  0  0  0  0  0  0  0  0  0  0  0
   23.9740   54.5770  -48.7300   O 0  0  0  0  0  0  0  0  0  0  0  0
   23.7290   53.0490  -50.7780   O 0  0  0  0  0  0  0  0  0  0  0  0
   24.6050   51.7110  -50.5770   P 0  0  0  0  0  0  0  0  0  0  0  0
   26.0920   52.1840  -50.1570   O 0  0  0  0  0  0  0  0  0  0  0  0
   23.9670   50.9400  -49.2890   O 0  0  0  0  0  0  0  0  0  0  0  0
   24.5800   50.8570  -51.7890   O 0  0  0  0  0  0  0  0  0  0  0  0
  1  2  1  0  0  0  0
  2 11  1  0  0  0  0
  2  3  1  0  0  0  0
  3  4  1  0  0  0  0
  3 10  1  0  0  0  0
  3 12  1  0  0  0  0
  4  5  1  0  0  0  0
  5  6  1  0  0  0  0
  6  7  1  0  0  0  0
  7  8  1  0  0  0  0
  7  9  1  0  0  0  0
 12 13  1  0  0  0  0
 13 16  1  0  0  0  0
 13 14  2  0  0  0  0
 13 15  1  0  0  0  0
 16 17  1  0  0  0  0
 17 20  2  0  0  0  0
 17 18  1  0  0  0  0
 17 19  1  0  0  0  0
A    1
C1
A    2
C2
A    3
C3
A    4
C4
A    5
C5
A    6
C6
A    7
C7
A    8
C8
A    9
C9
A   10
C10
A   11
F
A   12
O1
A   13
PA
A   14
O1A
A   15
O2A
A   16
O3A
A   17
PB
A   18
O2B
A   19
O3B
A   20
O1B
M  END
>  <InstanceId>
2ONH_F3P_A_600

>  <ChemCompId>
F3P

>  <PdbId>
2ONH

>  <ChainId>
A

>  <ResidueNumber>
600

>  <InsertionCode>


>  <Model>
1

>  <AltIds>


>  <MissingHeavyAtoms>
0

>  <ObservedFormula>
C10 O7 F P2

>  <Name>
(1S)-1-[(1S)-1-FLUOROETHYL]-1,5-DIMETHYLHEXYL TRIHYDROGEN DIPHOSPHATE

>  <SystematicName>
[(3S)-2-fluoro-3,7-dimethyl-octan-3-yl] phosphono hydrogen phosphate

>  <Synonyms>
2-FLUOROLINALYL DIPHOSPHATE

>  <Type>
NON-POLYMER

>  <Formula>
C10 H23 F O7 P2

>  <MolecularWeight>
336.231

>  <ModifiedDate>
2011-06-04

>  <Parent>


>  <OneLetterCode>


>  <SubcomponentList>


>  <AmbiguousFlag>


>  <InChI>
InChI=1S/C10H23FO7P2/c1-8(2)6-5-7-10(4,9(3)11)17-20(15,16)18-19(12,13)14/h8-9H,5-7H2,1-4H3,(H,15,16)(H2,12,13,14)/t9?,10-/m0/s1

>  <InChIKey>
JUOIVVAWJCVSPX-AXDSSHIGSA-N

>  <SMILES>
CC(C)CCC[C@@](C)(C(C)F)O[P@@](=O)(O)OP(=O)(O)O

$$$$
2ONH_F3P_B_1600
  RCSB PDB01151506383D
Coordinates from PDB:2ONH:B:1600 Model:1 without hydrogens
 20 19  0  0  0  0            999 V2000
  -23.1620   57.6790  -68.9440   C 0  0  0  0  0  0  0  0  0  0  0  0
  -23.5790   56.3490  -68.9220   C 0  0  0  0  0  0  0  0  0  0  0  0
  -22.7240   55.4560  -69.9270   C 0  0  0  0  0  0  0  0  0  0  0  0
  -21.2330   55.9020  -69.8780   C 0  0  0  0  0  0  0  0  0  0  0  0
  -20.6170   55.8940  -68.4750   C 0  0  0  0  0  0  0  0  0  0  0  0
  -21.1590   57.0470  -67.6730   C 0  0  0  0  0  0  0  0  0  0  0  0
  -21.0720   57.2330  -66.2980   C 0  0  0  0  0  0  0  0  0  0  0  0
  -21.7030   58.4880  -65.6920   C 0  0  0  0  0  0  0  0  0  0  0  0
  -20.4090   56.2840  -65.4510   C 0  0  0  0  0  0  0  0  0  0  0  0
  -22.8480   54.0840  -69.5690   C 0  0  0  0  0  0  0  0  0  0  0  0
  -24.6100   55.8640  -68.1360   F 0  0  0  0  0  0  0  0  0  0  0  0
  -23.1840   55.7780  -71.2510   O 0  0  0  0  0  0  0  0  0  0  0  0
  -24.1320   54.8500  -72.1730   P 0  0  0  0  0  0  0  0  0  0  0  0
  -25.6470   55.0310  -71.6190   O 0  0  0  0  0  0  0  0  0  0  0  0
  -24.0310   55.1930  -73.6110   O 0  0  0  0  0  0  0  0  0  0  0  0
  -23.7310   53.3100  -71.9220   O 0  0  0  0  0  0  0  0  0  0  0  0
  -24.6380   52.0780  -72.4330   P 0  0  0  0  0  0  0  0  0  0  0  0
  -26.1540   52.6150  -72.4990   O 0  0  0  0  0  0  0  0  0  0  0  0
  -24.1760   51.7900  -73.9610   O 0  0  0  0  0  0  0  0  0  0  0  0
  -24.4750   50.8790  -71.5810   O 0  0  0  0  0  0  0  0  0  0  0  0
  1  2  1  0  0  0  0
  2 11  1  0  0  0  0
  2  3  1  0  0  0  0
  3  4  1  0  0  0  0
  3 10  1  0  0  0  0
  3 12  1  0  0  0  0
  4  5  1  0  0  0  0
  5  6  1  0  0  0  0
  6  7  1  0  0  0  0
  7  8  1  0  0  0  0
  7  9  1  0  0  0  0
 12 13  1  0  0  0  0
 13 16  1  0  0  0  0
 13 14  2  0  0  0  0
 13 15  1  0  0  0  0
 16 17  1  0  0  0  0
 17 20  2  0  0  0  0
 17 18  1  0  0  0  0
 17 19  1  0  0  0  0
A    1
C1
A    2
C2
A    3
C3
A    4
C4
A    5
C5
A    6
C6
A    7
C7
A    8
C8
A    9
C9
A   10
C10
A   11
F
A   12
O1
A   13
PA
A   14
O1A
A   15
O2A
A   16
O3A
A   17
PB
A   18
O2B
A   19
O3B
A   20
O1B
M  END
>  <InstanceId>
2ONH_F3P_B_1600

>  <ChemCompId>
F3P

>  <PdbId>
2ONH

>  <ChainId>
B

>  <ResidueNumber>
1600

>  <InsertionCode>


>  <Model>
1

>  <AltIds>


>  <MissingHeavyAtoms>
0

>  <ObservedFormula>
C10 O7 F P2

>  <Name>
(1S)-1-[(1S)-1-FLUOROETHYL]-1,5-DIMETHYLHEXYL TRIHYDROGEN DIPHOSPHATE

>  <SystematicName>
[(3S)-2-fluoro-3,7-dimethyl-octan-3-yl] phosphono hydrogen phosphate

>  <Synonyms>
2-FLUOROLINALYL DIPHOSPHATE

>  <Type>
NON-POLYMER

>  <Formula>
C10 H23 F O7 P2

>  <MolecularWeight>
336.231

>  <ModifiedDate>
2011-06-04

>  <Parent>


>  <OneLetterCode>


>  <SubcomponentList>


>  <AmbiguousFlag>


>  <InChI>
InChI=1S/C10H23FO7P2/c1-8(2)6-5-7-10(4,9(3)11)17-20(15,16)18-19(12,13)14/h8-9H,5-7H2,1-4H3,(H,15,16)(H2,12,13,14)/t9?,10-/m0/s1

>  <InChIKey>
JUOIVVAWJCVSPX-AXDSSHIGSA-N

>  <SMILES>
CC(C)CCC[C@@](C)(C(C)F)O[P@@](=O)(O)OP(=O)(O)O

$$$$
