REMARK  7 active torsions:
REMARK  status: ('A' for Active; 'I' for Inactive)
REMARK    1  A    between atoms: C1_2  and  C2_3 
REMARK    2  A    between atoms: C2_3  and  C3_4 
REMARK    3  A    between atoms: C3_4  and  C4_5 
REMARK    4  A    between atoms: C4_5  and  C5_6 
REMARK    5  A    between atoms: C5_6  and  C6_7 
REMARK    6  A    between atoms: C6_7  and  C7_8 
REMARK    7  A    between atoms: C7_8  and  C8_9 
ROOT
ATOM      1  C4  UNL     1       4.948  -2.634  -0.995  1.00  0.00     0.000 C 
ENDROOT
BRANCH   1   2
ATOM      2  C5  UNL     1       6.493  -2.664  -1.006  1.00  0.00     0.000 C 
BRANCH   2   3
ATOM      3  C6  UNL     1       7.045  -4.015  -1.513  1.00  0.00     0.000 C 
BRANCH   3   4
ATOM      4  C7  UNL     1       8.590  -4.045  -1.524  1.00  0.00    -0.000 C 
BRANCH   4   5
ATOM      5  C8  UNL     1       9.142  -5.396  -2.031  1.00  0.00    -0.005 C 
ATOM      6  C9  UNL     1      10.683  -5.427  -2.043  1.00  0.00     0.005 C 
ENDBRANCH   4   5
ENDBRANCH   3   4
ENDBRANCH   2   3
ENDBRANCH   1   2
BRANCH   1   7
ATOM      7  C3  UNL     1       4.396  -1.283  -0.488  1.00  0.00     0.000 C 
BRANCH   7   8
ATOM      8  C2  UNL     1       2.852  -1.253  -0.477  1.00  0.00    -0.000 C 
BRANCH   8   9
ATOM      9  C1  UNL     1       2.299   0.097   0.030  1.00  0.00    -0.005 C 
ATOM     10  C   UNL     1       0.758   0.128   0.042  1.00  0.00     0.005 C 
ENDBRANCH   8   9
ENDBRANCH   7   8
ENDBRANCH   1   7
TORSDOF 7
